<?xml version="1.0" encoding="UTF-8" standalone="yes"?>
<template encoding-version="1.3">
    <description></description>
    <groupId>0927ddff-017c-1000-3f08-95a84646cb8e</groupId>
    <name>nifi_flow</name>
    <snippet>
        <connections>
            <id>3966259b-f857-3ddc-0000-000000000000</id>
            <parentGroupId>d3edd9d7-3244-387e-0000-000000000000</parentGroupId>
            <backPressureDataSizeThreshold>1 GB</backPressureDataSizeThreshold>
            <backPressureObjectThreshold>10000</backPressureObjectThreshold>
            <bends>
                <x>502.0325651560538</x>
                <y>363.70676787917773</y>
            </bends>
            <destination>
                <groupId>d3edd9d7-3244-387e-0000-000000000000</groupId>
                <id>d815d477-ef55-320f-0000-000000000000</id>
                <type>PROCESSOR</type>
            </destination>
            <flowFileExpiration>0 sec</flowFileExpiration>
            <labelIndex>1</labelIndex>
            <loadBalanceCompression>DO_NOT_COMPRESS</loadBalanceCompression>
            <loadBalancePartitionAttribute></loadBalancePartitionAttribute>
            <loadBalanceStatus>LOAD_BALANCE_NOT_CONFIGURED</loadBalanceStatus>
            <loadBalanceStrategy>DO_NOT_LOAD_BALANCE</loadBalanceStrategy>
            <name></name>
            <source>
                <groupId>2965ba65-3136-3bf7-0000-000000000000</groupId>
                <id>ace5da09-cc79-3b41-0000-000000000000</id>
                <type>OUTPUT_PORT</type>
            </source>
            <zIndex>0</zIndex>
        </connections>
        <connections>
            <id>b5cdbcf1-df4e-37a0-0000-000000000000</id>
            <parentGroupId>d3edd9d7-3244-387e-0000-000000000000</parentGroupId>
            <backPressureDataSizeThreshold>1 GB</backPressureDataSizeThreshold>
            <backPressureObjectThreshold>10000</backPressureObjectThreshold>
            <destination>
                <groupId>d3edd9d7-3244-387e-0000-000000000000</groupId>
                <id>d815d477-ef55-320f-0000-000000000000</id>
                <type>PROCESSOR</type>
            </destination>
            <flowFileExpiration>0 sec</flowFileExpiration>
            <labelIndex>1</labelIndex>
            <loadBalanceCompression>DO_NOT_COMPRESS</loadBalanceCompression>
            <loadBalancePartitionAttribute></loadBalancePartitionAttribute>
            <loadBalanceStatus>LOAD_BALANCE_NOT_CONFIGURED</loadBalanceStatus>
            <loadBalanceStrategy>DO_NOT_LOAD_BALANCE</loadBalanceStrategy>
            <name></name>
            <selectedRelationships>success</selectedRelationships>
            <source>
                <groupId>d3edd9d7-3244-387e-0000-000000000000</groupId>
                <id>f8b14c16-5ad5-39cb-0000-000000000000</id>
                <type>PROCESSOR</type>
            </source>
            <zIndex>0</zIndex>
        </connections>
        <connections>
            <id>d1799917-9114-3098-0000-000000000000</id>
            <parentGroupId>d3edd9d7-3244-387e-0000-000000000000</parentGroupId>
            <backPressureDataSizeThreshold>1 GB</backPressureDataSizeThreshold>
            <backPressureObjectThreshold>10000</backPressureObjectThreshold>
            <destination>
                <groupId>2965ba65-3136-3bf7-0000-000000000000</groupId>
                <id>16f19e87-b5ed-34e4-0000-000000000000</id>
                <type>INPUT_PORT</type>
            </destination>
            <flowFileExpiration>0 sec</flowFileExpiration>
            <labelIndex>1</labelIndex>
            <loadBalanceCompression>DO_NOT_COMPRESS</loadBalanceCompression>
            <loadBalancePartitionAttribute></loadBalancePartitionAttribute>
            <loadBalanceStatus>LOAD_BALANCE_NOT_CONFIGURED</loadBalanceStatus>
            <loadBalanceStrategy>DO_NOT_LOAD_BALANCE</loadBalanceStrategy>
            <name></name>
            <selectedRelationships>failure</selectedRelationships>
            <source>
                <groupId>d3edd9d7-3244-387e-0000-000000000000</groupId>
                <id>d815d477-ef55-320f-0000-000000000000</id>
                <type>PROCESSOR</type>
            </source>
            <zIndex>0</zIndex>
        </connections>
        <processGroups>
            <id>2965ba65-3136-3bf7-0000-000000000000</id>
            <parentGroupId>d3edd9d7-3244-387e-0000-000000000000</parentGroupId>
            <position>
                <x>640.0</x>
                <y>376.0</y>
            </position>
            <comments></comments>
            <contents>
                <connections>
                    <id>052eedea-99ee-3cb2-0000-000000000000</id>
                    <parentGroupId>2965ba65-3136-3bf7-0000-000000000000</parentGroupId>
                    <backPressureDataSizeThreshold>0 MB</backPressureDataSizeThreshold>
                    <backPressureObjectThreshold>0</backPressureObjectThreshold>
                    <destination>
                        <groupId>2965ba65-3136-3bf7-0000-000000000000</groupId>
                        <id>47f52be8-d356-34bb-0000-000000000000</id>
                        <type>PROCESSOR</type>
                    </destination>
                    <flowFileExpiration>0 sec</flowFileExpiration>
                    <labelIndex>1</labelIndex>
                    <loadBalanceCompression>DO_NOT_COMPRESS</loadBalanceCompression>
                    <loadBalanceStatus>LOAD_BALANCE_NOT_CONFIGURED</loadBalanceStatus>
                    <loadBalanceStrategy>DO_NOT_LOAD_BALANCE</loadBalanceStrategy>
                    <name></name>
                    <selectedRelationships>failure</selectedRelationships>
                    <selectedRelationships>success</selectedRelationships>
                    <source>
                        <groupId>2965ba65-3136-3bf7-0000-000000000000</groupId>
                        <id>1d35ffcd-b9f4-334d-0000-000000000000</id>
                        <type>PROCESSOR</type>
                    </source>
                    <zIndex>0</zIndex>
                </connections>
                <connections>
                    <id>2b26c4ba-3299-3ffc-0000-000000000000</id>
                    <parentGroupId>2965ba65-3136-3bf7-0000-000000000000</parentGroupId>
                    <backPressureDataSizeThreshold>0 MB</backPressureDataSizeThreshold>
                    <backPressureObjectThreshold>0</backPressureObjectThreshold>
                    <destination>
                        <groupId>2965ba65-3136-3bf7-0000-000000000000</groupId>
                        <id>1d35ffcd-b9f4-334d-0000-000000000000</id>
                        <type>PROCESSOR</type>
                    </destination>
                    <flowFileExpiration>0 sec</flowFileExpiration>
                    <labelIndex>1</labelIndex>
                    <loadBalanceCompression>DO_NOT_COMPRESS</loadBalanceCompression>
                    <loadBalanceStatus>LOAD_BALANCE_NOT_CONFIGURED</loadBalanceStatus>
                    <loadBalanceStrategy>DO_NOT_LOAD_BALANCE</loadBalanceStrategy>
                    <name></name>
                    <selectedRelationships>email</selectedRelationships>
                    <source>
                        <groupId>2965ba65-3136-3bf7-0000-000000000000</groupId>
                        <id>cba5f440-2189-3b0f-0000-000000000000</id>
                        <type>PROCESSOR</type>
                    </source>
                    <zIndex>0</zIndex>
                </connections>
                <connections>
                    <id>461dd867-ef48-3fd8-0000-000000000000</id>
                    <parentGroupId>2965ba65-3136-3bf7-0000-000000000000</parentGroupId>
                    <backPressureDataSizeThreshold>0 MB</backPressureDataSizeThreshold>
                    <backPressureObjectThreshold>0</backPressureObjectThreshold>
                    <destination>
                        <groupId>2965ba65-3136-3bf7-0000-000000000000</groupId>
                        <id>cba5f440-2189-3b0f-0000-000000000000</id>
                        <type>PROCESSOR</type>
                    </destination>
                    <flowFileExpiration>0 sec</flowFileExpiration>
                    <labelIndex>1</labelIndex>
                    <loadBalanceCompression>DO_NOT_COMPRESS</loadBalanceCompression>
                    <loadBalanceStatus>LOAD_BALANCE_NOT_CONFIGURED</loadBalanceStatus>
                    <loadBalanceStrategy>DO_NOT_LOAD_BALANCE</loadBalanceStrategy>
                    <name></name>
                    <selectedRelationships>success</selectedRelationships>
                    <source>
                        <groupId>2965ba65-3136-3bf7-0000-000000000000</groupId>
                        <id>2014730e-7916-3c50-0000-000000000000</id>
                        <type>PROCESSOR</type>
                    </source>
                    <zIndex>0</zIndex>
                </connections>
                <connections>
                    <id>7c4c9c24-e351-3757-0000-000000000000</id>
                    <parentGroupId>2965ba65-3136-3bf7-0000-000000000000</parentGroupId>
                    <backPressureDataSizeThreshold>0 MB</backPressureDataSizeThreshold>
                    <backPressureObjectThreshold>0</backPressureObjectThreshold>
                    <destination>
                        <groupId>2965ba65-3136-3bf7-0000-000000000000</groupId>
                        <id>ace5da09-cc79-3b41-0000-000000000000</id>
                        <type>OUTPUT_PORT</type>
                    </destination>
                    <flowFileExpiration>0 sec</flowFileExpiration>
                    <labelIndex>1</labelIndex>
                    <loadBalanceCompression>DO_NOT_COMPRESS</loadBalanceCompression>
                    <loadBalanceStatus>LOAD_BALANCE_NOT_CONFIGURED</loadBalanceStatus>
                    <loadBalanceStrategy>DO_NOT_LOAD_BALANCE</loadBalanceStrategy>
                    <name></name>
                    <selectedRelationships>unmatched</selectedRelationships>
                    <source>
                        <groupId>2965ba65-3136-3bf7-0000-000000000000</groupId>
                        <id>cba5f440-2189-3b0f-0000-000000000000</id>
                        <type>PROCESSOR</type>
                    </source>
                    <zIndex>0</zIndex>
                </connections>
                <connections>
                    <id>bf209df1-4137-312d-0000-000000000000</id>
                    <parentGroupId>2965ba65-3136-3bf7-0000-000000000000</parentGroupId>
                    <backPressureDataSizeThreshold>0 MB</backPressureDataSizeThreshold>
                    <backPressureObjectThreshold>0</backPressureObjectThreshold>
                    <destination>
                        <groupId>2965ba65-3136-3bf7-0000-000000000000</groupId>
                        <id>ace5da09-cc79-3b41-0000-000000000000</id>
                        <type>OUTPUT_PORT</type>
                    </destination>
                    <flowFileExpiration>0 sec</flowFileExpiration>
                    <labelIndex>1</labelIndex>
                    <loadBalanceCompression>DO_NOT_COMPRESS</loadBalanceCompression>
                    <loadBalanceStatus>LOAD_BALANCE_NOT_CONFIGURED</loadBalanceStatus>
                    <loadBalanceStrategy>DO_NOT_LOAD_BALANCE</loadBalanceStrategy>
                    <name></name>
                    <selectedRelationships>success</selectedRelationships>
                    <source>
                        <groupId>2965ba65-3136-3bf7-0000-000000000000</groupId>
                        <id>47f52be8-d356-34bb-0000-000000000000</id>
                        <type>PROCESSOR</type>
                    </source>
                    <zIndex>0</zIndex>
                </connections>
                <connections>
                    <id>f8d53500-0aa6-3f28-0000-000000000000</id>
                    <parentGroupId>2965ba65-3136-3bf7-0000-000000000000</parentGroupId>
                    <backPressureDataSizeThreshold>0 MB</backPressureDataSizeThreshold>
                    <backPressureObjectThreshold>0</backPressureObjectThreshold>
                    <destination>
                        <groupId>2965ba65-3136-3bf7-0000-000000000000</groupId>
                        <id>2014730e-7916-3c50-0000-000000000000</id>
                        <type>PROCESSOR</type>
                    </destination>
                    <flowFileExpiration>0 sec</flowFileExpiration>
                    <labelIndex>1</labelIndex>
                    <loadBalanceCompression>DO_NOT_COMPRESS</loadBalanceCompression>
                    <loadBalanceStatus>LOAD_BALANCE_NOT_CONFIGURED</loadBalanceStatus>
                    <loadBalanceStrategy>DO_NOT_LOAD_BALANCE</loadBalanceStrategy>
                    <name></name>
                    <source>
                        <groupId>2965ba65-3136-3bf7-0000-000000000000</groupId>
                        <id>16f19e87-b5ed-34e4-0000-000000000000</id>
                        <type>INPUT_PORT</type>
                    </source>
                    <zIndex>0</zIndex>
                </connections>
                <inputPorts>
                    <id>16f19e87-b5ed-34e4-0000-000000000000</id>
                    <parentGroupId>2965ba65-3136-3bf7-0000-000000000000</parentGroupId>
                    <position>
                        <x>1773.935302734375</x>
                        <y>176.5811999511719</y>
                    </position>
                    <comments></comments>
                    <concurrentlySchedulableTaskCount>1</concurrentlySchedulableTaskCount>
                    <name>input</name>
                    <state>STOPPED</state>
                    <type>INPUT_PORT</type>
                </inputPorts>
                <outputPorts>
                    <id>ace5da09-cc79-3b41-0000-000000000000</id>
                    <parentGroupId>2965ba65-3136-3bf7-0000-000000000000</parentGroupId>
                    <position>
                        <x>1771.773681640625</x>
                        <y>289.53806152343753</y>
                    </position>
                    <comments></comments>
                    <concurrentlySchedulableTaskCount>1</concurrentlySchedulableTaskCount>
                    <name>retry</name>
                    <state>STOPPED</state>
                    <type>OUTPUT_PORT</type>
                </outputPorts>
                <processors>
                    <id>1d35ffcd-b9f4-334d-0000-000000000000</id>
                    <parentGroupId>2965ba65-3136-3bf7-0000-000000000000</parentGroupId>
                    <position>
                        <x>2294.919189453125</x>
                        <y>359.614892578125</y>
                    </position>
                    <bundle>
                        <artifact>nifi-standard-nar</artifact>
                        <group>org.apache.nifi</group>
                        <version>1.14.0</version>
                    </bundle>
                    <config>
                        <bulletinLevel>WARN</bulletinLevel>
                        <comments></comments>
                        <concurrentlySchedulableTaskCount>1</concurrentlySchedulableTaskCount>
                        <descriptors>
                            <entry>
<key>SMTP Hostname</key>
<value>
    <name>SMTP Hostname</name>
</value>
                            </entry>
                            <entry>
<key>SMTP Port</key>
<value>
    <name>SMTP Port</name>
</value>
                            </entry>
                            <entry>
<key>SMTP Username</key>
<value>
    <name>SMTP Username</name>
</value>
                            </entry>
                            <entry>
<key>SMTP Password</key>
<value>
    <name>SMTP Password</name>
</value>
                            </entry>
                            <entry>
<key>SMTP Auth</key>
<value>
    <name>SMTP Auth</name>
</value>
                            </entry>
                            <entry>
<key>SMTP TLS</key>
<value>
    <name>SMTP TLS</name>
</value>
                            </entry>
                            <entry>
<key>SMTP Socket Factory</key>
<value>
    <name>SMTP Socket Factory</name>
</value>
                            </entry>
                            <entry>
<key>SMTP X-Mailer Header</key>
<value>
    <name>SMTP X-Mailer Header</name>
</value>
                            </entry>
                            <entry>
<key>attribute-name-regex</key>
<value>
    <name>attribute-name-regex</name>
</value>
                            </entry>
                            <entry>
<key>Content Type</key>
<value>
    <name>Content Type</name>
</value>
                            </entry>
                            <entry>
<key>From</key>
<value>
    <name>From</name>
</value>
                            </entry>
                            <entry>
<key>To</key>
<value>
    <name>To</name>
</value>
                            </entry>
                            <entry>
<key>CC</key>
<value>
    <name>CC</name>
</value>
                            </entry>
                            <entry>
<key>BCC</key>
<value>
    <name>BCC</name>
</value>
                            </entry>
                            <entry>
<key>Subject</key>
<value>
    <name>Subject</name>
</value>
                            </entry>
                            <entry>
<key>Message</key>
<value>
    <name>Message</name>
</value>
                            </entry>
                            <entry>
<key>email-ff-content-as-message</key>
<value>
    <name>email-ff-content-as-message</name>
</value>
                            </entry>
                            <entry>
<key>Attach File</key>
<value>
    <name>Attach File</name>
</value>
                            </entry>
                            <entry>
<key>Include All Attributes In Message</key>
<value>
    <name>Include All Attributes In Message</name>
</value>
                            </entry>
                        </descriptors>
                        <executionNode>ALL</executionNode>
                        <lossTolerant>false</lossTolerant>
                        <penaltyDuration>30 sec</penaltyDuration>
                        <properties>
                            <entry>
<key>SMTP Hostname</key>
<value>myhost.com</value>
                            </entry>
                            <entry>
<key>SMTP Port</key>
<value>25</value>
                            </entry>
                            <entry>
<key>SMTP Username</key>
                            </entry>
                            <entry>
<key>SMTP Password</key>
                            </entry>
                            <entry>
<key>SMTP Auth</key>
<value>true</value>
                            </entry>
                            <entry>
<key>SMTP TLS</key>
<value>false</value>
                            </entry>
                            <entry>
<key>SMTP Socket Factory</key>
<value>javax.net.ssl.SSLSocketFactory</value>
                            </entry>
                            <entry>
<key>SMTP X-Mailer Header</key>
<value>NiFi</value>
                            </entry>
                            <entry>
<key>attribute-name-regex</key>
                            </entry>
                            <entry>
<key>Content Type</key>
<value>text/plain</value>
                            </entry>
                            <entry>
<key>From</key>
<value>nifi@myhost.com</value>
                            </entry>
                            <entry>
<key>To</key>
<value>admin@myhost.com</value>
                            </entry>
                            <entry>
<key>CC</key>
                            </entry>
                            <entry>
<key>BCC</key>
                            </entry>
                            <entry>
<key>Subject</key>
<value>Message from NiFi</value>
                            </entry>
                            <entry>
<key>Message</key>
<value>Error ______</value>
                            </entry>
                            <entry>
<key>email-ff-content-as-message</key>
<value>false</value>
                            </entry>
                            <entry>
<key>Attach File</key>
<value>false</value>
                            </entry>
                            <entry>
<key>Include All Attributes In Message</key>
<value>false</value>
                            </entry>
                        </properties>
                        <runDurationMillis>0</runDurationMillis>
                        <schedulingPeriod>0 sec</schedulingPeriod>
                        <schedulingStrategy>TIMER_DRIVEN</schedulingStrategy>
                        <yieldDuration>1 sec</yieldDuration>
                    </config>
                    <executionNodeRestricted>false</executionNodeRestricted>
                    <name>PutEmail</name>
                    <relationships>
                        <autoTerminate>false</autoTerminate>
                        <name>failure</name>
                    </relationships>
                    <relationships>
                        <autoTerminate>false</autoTerminate>
                        <name>success</name>
                    </relationships>
                    <state>STOPPED</state>
                    <style/>
                    <type>org.apache.nifi.processors.standard.PutEmail</type>
                </processors>
                <processors>
                    <id>2014730e-7916-3c50-0000-000000000000</id>
                    <parentGroupId>2965ba65-3136-3bf7-0000-000000000000</parentGroupId>
                    <position>
                        <x>2095.60302734375</x>
                        <y>-4.514922618865967</y>
                    </position>
                    <bundle>
                        <artifact>nifi-update-attribute-nar</artifact>
                        <group>org.apache.nifi</group>
                        <version>1.14.0</version>
                    </bundle>
                    <config>
                        <annotationData>&lt;criteria&gt;
    &lt;flowFilePolicy&gt;USE_CLONE&lt;/flowFilePolicy&gt;
    &lt;rules&gt;
        &lt;actions&gt;
            &lt;attribute&gt;retryCount&lt;/attribute&gt;
            &lt;id&gt;fc5de9d9-e9d8-4724-9026-adc251e64664&lt;/id&gt;
            &lt;value&gt;${retryCount:plus(1)}&lt;/value&gt;
        &lt;/actions&gt;
        &lt;conditions&gt;
            &lt;expression&gt;${retryCount:gt(0)}&lt;/expression&gt;
            &lt;id&gt;1bcb0886-548b-487b-b9c9-2f5be4a9f22d&lt;/id&gt;
        &lt;/conditions&gt;
        &lt;id&gt;ba69ad76-528d-4b64-856d-97f8b75335d0&lt;/id&gt;
        &lt;name&gt;initialized&lt;/name&gt;
    &lt;/rules&gt;
    &lt;rules&gt;
        &lt;actions&gt;
            &lt;attribute&gt;retryCount&lt;/attribute&gt;
            &lt;id&gt;12438de1-4484-48d2-8406-902e2eeec5df&lt;/id&gt;
            &lt;value&gt;1&lt;/value&gt;
        &lt;/actions&gt;
        &lt;conditions&gt;
            &lt;expression&gt;${retryCount:gt(0):not()}&lt;/expression&gt;
            &lt;id&gt;8d23dd53-24ba-4ae1-99a5-5fff51f24653&lt;/id&gt;
        &lt;/conditions&gt;
        &lt;id&gt;fd96e132-5298-4835-9304-dd718bed1a3b&lt;/id&gt;
        &lt;name&gt;uninitialized&lt;/name&gt;
    &lt;/rules&gt;
&lt;/criteria&gt;</annotationData>
                        <bulletinLevel>WARN</bulletinLevel>
                        <comments></comments>
                        <concurrentlySchedulableTaskCount>1</concurrentlySchedulableTaskCount>
                        <descriptors>
                            <entry>
<key>Delete Attributes Expression</key>
<value>
    <name>Delete Attributes Expression</name>
</value>
                            </entry>
                            <entry>
<key>Store State</key>
<value>
    <name>Store State</name>
</value>
                            </entry>
                            <entry>
<key>Stateful Variables Initial Value</key>
<value>
    <name>Stateful Variables Initial Value</name>
</value>
                            </entry>
                            <entry>
<key>canonical-value-lookup-cache-size</key>
<value>
    <name>canonical-value-lookup-cache-size</name>
</value>
                            </entry>
                            <entry>
<key>retryCount</key>
<value>
    <name>retryCount</name>
</value>
                            </entry>
                        </descriptors>
                        <executionNode>ALL</executionNode>
                        <lossTolerant>false</lossTolerant>
                        <penaltyDuration>30 sec</penaltyDuration>
                        <properties>
                            <entry>
<key>Delete Attributes Expression</key>
                            </entry>
                            <entry>
<key>Store State</key>
<value>Do not store state</value>
                            </entry>
                            <entry>
<key>Stateful Variables Initial Value</key>
                            </entry>
                            <entry>
<key>canonical-value-lookup-cache-size</key>
<value>100</value>
                            </entry>
                            <entry>
<key>retryCount</key>
<value>${retryCount:plus(1)}</value>
                            </entry>
                        </properties>
                        <runDurationMillis>0</runDurationMillis>
                        <schedulingPeriod>0 sec</schedulingPeriod>
                        <schedulingStrategy>TIMER_DRIVEN</schedulingStrategy>
                        <yieldDuration>1 sec</yieldDuration>
                    </config>
                    <executionNodeRestricted>false</executionNodeRestricted>
                    <name>Set/Increment retryCount</name>
                    <relationships>
                        <autoTerminate>false</autoTerminate>
                        <name>success</name>
                    </relationships>
                    <state>STOPPED</state>
                    <style/>
                    <type>org.apache.nifi.processors.attributes.UpdateAttribute</type>
                </processors>
                <processors>
                    <id>47f52be8-d356-34bb-0000-000000000000</id>
                    <parentGroupId>2965ba65-3136-3bf7-0000-000000000000</parentGroupId>
                    <position>
                        <x>2013.0869140625</x>
                        <y>544.2190051269531</y>
                    </position>
                    <bundle>
                        <artifact>nifi-update-attribute-nar</artifact>
                        <group>org.apache.nifi</group>
                        <version>1.14.0</version>
                    </bundle>
                    <config>
                        <bulletinLevel>WARN</bulletinLevel>
                        <comments></comments>
                        <concurrentlySchedulableTaskCount>1</concurrentlySchedulableTaskCount>
                        <descriptors>
                            <entry>
<key>Delete Attributes Expression</key>
<value>
    <name>Delete Attributes Expression</name>
</value>
                            </entry>
                            <entry>
<key>Store State</key>
<value>
    <name>Store State</name>
</value>
                            </entry>
                            <entry>
<key>Stateful Variables Initial Value</key>
<value>
    <name>Stateful Variables Initial Value</name>
</value>
                            </entry>
                            <entry>
<key>canonical-value-lookup-cache-size</key>
<value>
    <name>canonical-value-lookup-cache-size</name>
</value>
                            </entry>
                            <entry>
<key>retryCount</key>
<value>
    <name>retryCount</name>
</value>
                            </entry>
                        </descriptors>
                        <executionNode>ALL</executionNode>
                        <lossTolerant>false</lossTolerant>
                        <penaltyDuration>30 sec</penaltyDuration>
                        <properties>
                            <entry>
<key>Delete Attributes Expression</key>
                            </entry>
                            <entry>
<key>Store State</key>
<value>Do not store state</value>
                            </entry>
                            <entry>
<key>Stateful Variables Initial Value</key>
                            </entry>
                            <entry>
<key>canonical-value-lookup-cache-size</key>
<value>100</value>
                            </entry>
                            <entry>
<key>retryCount</key>
<value>0</value>
                            </entry>
                        </properties>
                        <runDurationMillis>0</runDurationMillis>
                        <schedulingPeriod>0 sec</schedulingPeriod>
                        <schedulingStrategy>TIMER_DRIVEN</schedulingStrategy>
                        <yieldDuration>1 sec</yieldDuration>
                    </config>
                    <executionNodeRestricted>false</executionNodeRestricted>
                    <name>retryCount=0</name>
                    <relationships>
                        <autoTerminate>false</autoTerminate>
                        <name>success</name>
                    </relationships>
                    <state>STOPPED</state>
                    <style/>
                    <type>org.apache.nifi.processors.attributes.UpdateAttribute</type>
                </processors>
                <processors>
                    <id>cba5f440-2189-3b0f-0000-000000000000</id>
                    <parentGroupId>2965ba65-3136-3bf7-0000-000000000000</parentGroupId>
                    <position>
                        <x>2292.1728515625</x>
                        <y>179.84168212890626</y>
                    </position>
                    <bundle>
                        <artifact>nifi-standard-nar</artifact>
                        <group>org.apache.nifi</group>